Version 4
SHEET 1 2776 1000
WIRE -432 -144 -576 -144
WIRE 256 -144 256 -320
WIRE 256 -144 -432 -144
WIRE 720 -144 256 -144
WIRE 2304 -144 720 -144
WIRE 2352 0 2112 0
WIRE 2640 0 2432 0
WIRE -112 32 -144 32
WIRE 112 32 -112 32
WIRE 240 32 192 32
WIRE 608 32 416 32
WIRE 880 32 672 32
WIRE -576 48 -576 -144
WIRE -624 64 -864 64
WIRE -352 80 -560 80
WIRE -224 80 -224 32
WIRE -224 80 -352 80
WIRE -624 96 -1072 96
WIRE -352 112 -352 80
WIRE 2112 112 2112 0
WIRE 2224 112 2112 112
WIRE 2416 112 2288 112
WIRE 256 176 256 -144
WIRE 256 176 16 176
WIRE 2304 208 2304 -144
WIRE 2304 208 2272 208
WIRE -864 240 -864 64
WIRE -352 240 -352 192
WIRE -352 240 -864 240
WIRE 2272 240 2272 208
WIRE 2112 256 2112 112
WIRE 2224 256 2112 256
WIRE 16 272 16 176
WIRE 1920 272 1680 272
WIRE 2112 272 2112 256
WIRE 2112 272 2000 272
WIRE 2416 272 2416 112
WIRE 2416 272 2288 272
WIRE 2496 272 2416 272
WIRE 2640 272 2640 0
WIRE 2640 272 2560 272
WIRE 2672 272 2640 272
WIRE 2768 272 2752 272
WIRE -352 288 -352 240
WIRE -112 288 -112 32
WIRE -32 288 -112 288
WIRE 720 288 720 -144
WIRE 2224 288 2112 288
WIRE 240 304 240 32
WIRE 240 304 32 304
WIRE 288 304 240 304
WIRE 416 304 416 32
WIRE 416 304 368 304
WIRE 448 304 416 304
WIRE 560 304 528 304
WIRE 608 304 560 304
WIRE 672 304 624 304
WIRE -1072 320 -1072 96
WIRE -32 320 -112 320
WIRE 880 320 880 32
WIRE 880 320 736 320
WIRE 912 320 880 320
WIRE 1680 320 1680 272
WIRE 1680 320 912 320
WIRE 608 336 608 304
WIRE 672 336 608 336
WIRE 912 336 912 320
WIRE 704 368 704 352
WIRE 704 368 672 368
WIRE 624 384 624 304
WIRE 624 384 576 384
WIRE 560 400 560 304
WIRE 560 400 416 400
WIRE 576 416 576 384
WIRE 704 416 576 416
WIRE 880 416 880 320
WIRE 880 416 784 416
WIRE -352 432 -352 368
WIRE -352 432 -864 432
WIRE 576 464 576 416
WIRE -352 480 -352 432
WIRE 416 480 416 400
WIRE -432 496 -432 -144
WIRE -432 496 -560 496
WIRE -592 512 -592 112
WIRE -448 512 -592 512
WIRE -560 608 -560 496
WIRE -864 624 -864 432
WIRE -608 624 -864 624
WIRE -352 640 -352 560
WIRE -352 640 -544 640
WIRE -240 640 -352 640
WIRE -112 640 -112 320
WIRE -112 640 -160 640
WIRE 112 640 -112 640
WIRE 304 640 192 640
WIRE 416 640 416 544
WIRE 416 640 304 640
WIRE 576 640 576 544
WIRE 576 640 416 640
WIRE 1920 640 576 640
WIRE -1072 656 -1072 400
WIRE -608 656 -1072 656
WIRE 304 672 304 640
WIRE 1920 800 1920 640
WIRE 2112 800 2112 288
WIRE 2112 800 1920 800
WIRE 2432 800 2112 800
WIRE 2768 800 2768 272
WIRE 2768 800 2512 800
WIRE -576 848 -576 672
WIRE -448 848 -448 512
WIRE -448 848 -576 848
WIRE 0 848 0 336
WIRE 0 848 -448 848
WIRE 272 848 0 848
WIRE 672 848 672 368
WIRE 672 848 272 848
WIRE 2256 848 2256 304
WIRE 2256 848 672 848
WIRE 2768 848 2768 800
WIRE 272 880 272 848
FLAG 304 672 0
FLAG 256 -400 0
FLAG 272 960 0
SYMBOL res -368 96 R0
SYMATTR InstName R1
SYMATTR Value 10k
SYMBOL res -368 272 R0
SYMATTR InstName R22
SYMATTR Value 220
SYMBOL res -368 464 R0
SYMATTR InstName R3
SYMATTR Value 10k
SYMBOL res -144 624 R90
WINDOW 0 0 56 VBottom 2
WINDOW 3 32 56 VTop 2
SYMATTR InstName R4
SYMATTR Value 10k
SYMBOL res -128 16 R90
WINDOW 0 0 56 VBottom 2
WINDOW 3 32 56 VTop 2
SYMATTR InstName R5
SYMATTR Value 10k
SYMBOL res 208 16 R90
WINDOW 0 0 56 VBottom 2
WINDOW 3 32 56 VTop 2
SYMATTR InstName R6
SYMATTR Value 10k
SYMBOL res 208 624 R90
WINDOW 0 0 56 VBottom 2
WINDOW 3 32 56 VTop 2
SYMATTR InstName R20
SYMATTR Value 2.2k
SYMBOL res 384 288 R90
WINDOW 0 0 56 VBottom 2
WINDOW 3 32 56 VTop 2
SYMATTR InstName R8
SYMATTR Value 4.7k
SYMBOL res 544 288 R90
WINDOW 0 0 56 VBottom 2
WINDOW 3 32 56 VTop 2
SYMATTR InstName R9
SYMATTR Value 4.7k
SYMBOL res 592 560 R180
WINDOW 0 36 76 Left 2
WINDOW 3 36 40 Left 2
SYMATTR InstName R21
SYMATTR Value 4.7k
SYMBOL OpAmps\\LM308 -592 16 R0
SYMATTR InstName U1
SYMBOL OpAmps\\LM308 -576 576 R0
SYMATTR InstName U2
SYMBOL OpAmps\\LM308 0 240 R0
SYMATTR InstName U3
SYMBOL OpAmps\\LM308 704 256 R0
SYMATTR InstName U4
SYMBOL res 800 400 R90
WINDOW 0 0 56 VBottom 2
WINDOW 3 32 56 VTop 2
SYMATTR InstName R11
SYMATTR Value 47k
SYMBOL cap 400 480 R0
SYMATTR InstName C1
SYMATTR Value 68n
SYMBOL cap 672 16 R90
WINDOW 0 0 32 VBottom 2
WINDOW 3 32 32 VTop 2
SYMATTR InstName C2
SYMATTR Value 68n
SYMBOL voltage 256 -304 R180
WINDOW 0 24 96 Left 2
WINDOW 3 24 16 Left 2
WINDOW 123 0 0 Left 0
WINDOW 39 0 0 Left 0
SYMATTR InstName V1
SYMATTR Value 15
SYMBOL voltage 272 976 R180
WINDOW 0 24 96 Left 2
WINDOW 3 24 16 Left 2
WINDOW 123 0 0 Left 0
WINDOW 39 0 0 Left 0
SYMATTR InstName V2
SYMATTR Value 15
SYMBOL voltage -1072 416 R180
WINDOW 123 0 0 Left 0
WINDOW 39 0 0 Left 0
SYMATTR InstName V3
SYMATTR Value PWL file="C:\Users\Imesh Abeysinghe\Downloads\high_frequency_emg_signal.txt"
SYMBOL OpAmps\\LM308 2256 208 R0
SYMATTR InstName U7
SYMBOL Contrib\\Toshiba\\diode\\1SS294 2288 96 R90
WINDOW 0 0 32 VBottom 2
WINDOW 3 32 32 VTop 2
SYMATTR InstName U10
SYMBOL Contrib\\Toshiba\\diode\\1SS294 2560 256 R90
WINDOW 0 0 32 VBottom 2
WINDOW 3 32 32 VTop 2
SYMATTR InstName U11
SYMBOL res 2448 -16 R90
WINDOW 0 0 56 VBottom 2
WINDOW 3 32 56 VTop 2
SYMATTR InstName R2
SYMATTR Value 6.8k
SYMBOL res 2768 256 R90
WINDOW 0 0 56 VBottom 2
WINDOW 3 32 56 VTop 2
SYMATTR InstName R7
SYMATTR Value 3.4k
SYMBOL res 2016 256 R90
WINDOW 0 0 56 VBottom 2
WINDOW 3 32 56 VTop 2
SYMATTR InstName R10
SYMATTR Value 6.8k
SYMBOL res 2528 784 R90
WINDOW 0 0 56 VBottom 2
WINDOW 3 32 56 VTop 2
SYMATTR InstName R18
SYMATTR Value 6.8k
TEXT -1104 984 Left 2 !.tran 1m
